data/case141/reduced/74pct/case141_reduced.m
%% case141_reduced -- Opti-KRON reduction of case141
%
%   141 buses reduced to 37 super-nodes (73.8% reduction), 36 branches.
%   Loads are scenario 1 of 1.
%
%   Equivalent branches come from the Kron-reduced admittance matrix, so a
%   negative resistance is possible and is not an error -- an equivalent
%   branch stands in for eliminated network, not for a conductor.
%
%   Bus map -- each super-node and the original buses it represents:
%     1 <- 1
%     2 <- 2 33 34
%     3 <- 3 4
%     5 <- 5 35 36
%     6 <- 6 37
%     7 <- 7 88 111
%     8 <- 8
%     9 <- 9
%     10 <- 10 11 112 113
%     12 <- 12
%     13 <- 13 14 114 115 116 117
%     15 <- 15 16 118 119 120 121 131 132 133 134 135 136
%     17 <- 17 18 19 137
%     20 <- 20 21 22
%     23 <- 23 24 25 138 139
%     26 <- 26 27 28 29 30 31 32 140 141
%     38 <- 38 53
%     39 <- 39
%     40 <- 40
%     41 <- 41
%     42 <- 42 54 73 74
%     43 <- 43 75
%     44 <- 44 45 46 76 77 78
%     47 <- 47 48 83
%     49 <- 49 50 51 52 84 85 86 87
%     55 <- 55 56 57 58 60 61 62 63 69 70 71 72
%     59 <- 59
%     64 <- 64 65 66 67 68
%     79 <- 79 80 81 82
%     89 <- 89 90
%     91 <- 91 101
%     92 <- 92 107
%     93 <- 93 94 95 108 109 110
%     96 <- 96 97 98 99 100
%     102 <- 102 103 104 105 106
%     122 <- 122 123 124
%     125 <- 125 126 127 128 129 130

function mpc = case141_reduced
mpc.version = '2';
mpc.baseMVA = 1;

%% bus data
%	bus_i	type	Pd	Qd	Gs	Bs	area	Vm	Va	baseKV	zone	Vmax	Vmin
mpc.bus = [
	1	3	-0	-0	0	0	1	1	0	1	1	1.1	0.9;
	2	1	0.012750000000000001	0.0079017403146395531	5.1959624220087749e-13	-1.8167333240261604e-12	1	1	0	1	1	1.1	0.9;
	3	1	-0	-0	-2.7284841053187847e-12	3.4106051316484809e-13	1	1	0	1	1	1.1	0.9;
	5	1	0.038250000000000006	0.023705220943918658	-5.0665368670751517e-11	1.051523730472546e-12	1	1	0	1	1	1.1	0.9;
	6	1	0.0042500000000000003	0.0026339134382131848	6.1323853255282984e-13	-1.1422360874196005e-12	1	1	0	1	1	1.1	0.9;
	7	1	0.0085000000000000006	0.0052678268764263687	1.688418264429196e-12	-2.0359370771222363e-12	1	1	0	1	1	1.1	0.9;
	8	1	0.0063750000000000005	0.0039508701573197766	0	0	1	1	0	1	1	1.1	0.9;
	9	1	0.00085000000000000006	0.0005267826876426369	0	0	1	1	0	1	1	1.1	0.9;
	10	1	0.048874999999999995	0.030290004539451625	5.6115339808445461e-13	6.4314923157624682e-13	1	1	0	1	1	1.1	0.9;
	12	1	0.0021250000000000002	0.0013169567191065924	4.2632564145606011e-14	0	1	1	0	1	1	1.1	0.9;
	13	1	0.037400000000000003	0.023178438256276024	-1.310415101640778e-12	-1.4821219415872313e-13	1	1	0	1	1	1.1	0.9;
	15	1	0.031024999999999997	0.019227568098956246	3.055181296191516e-13	-2.6478867266413037e-13	1	1	0	1	1	1.1	0.9;
	17	1	0.017425000000000003	0.010799045096674056	1.6673589743948558e-11	8.3882493113274698e-12	1	1	0	1	1	1.1	0.9;
	20	1	0.012750000000000001	0.0079017403146395531	2.1318038254966525e-11	1.0106455449416983e-11	1	1	0	1	1	1.1	0.9;
	23	1	0.014875000000000001	0.0092186970337461462	-3.1148331192298552e-12	-9.1259958214660919e-12	1	1	0	1	1	1.1	0.9;
	26	1	0.057375000000000002	0.03555783141587799	4.6909281772191585e-11	-3.1365767595837959e-10	1	1	0	1	1	1.1	0.9;
	38	1	0.0085000000000000006	0.0052678268764263696	-2.8623817366242395e-12	7.1544290976826068e-12	1	1	0	1	1	1.1	0.9;
	39	1	0.0017000000000000001	0.0010535653752852738	5.6843418860808015e-14	0	1	1	0	1	1	1.1	0.9;
	40	1	-0	-0	1.4210854715202004e-14	-1.4210854715202004e-14	1	1	0	1	1	1.1	0.9;
	41	1	0.0063750000000000005	0.0039508701573197766	-7.1054273576010019e-15	3.5527136788005009e-15	1	1	0	1	1	1.1	0.9;
	42	1	0.051000000000000004	0.031606961258558212	-2.0912898521949005e-13	2.8605034473124818e-13	1	1	0	1	1	1.1	0.9;
	43	1	0.0038249999999999998	0.0023705220943918662	7.9220953050798844e-13	-6.5472590596021944e-13	1	1	0	1	1	1.1	0.9;
	44	1	0.023375	0.014486523910172515	-6.6659530482919573e-12	2.9805915763546363e-12	1	1	0	1	1	1.1	0.9;
	47	1	0.017000000000000001	0.010535653752852737	-1.0174957383427721e-12	2.477280173270992e-12	1	1	0	1	1	1.1	0.9;
	49	1	0.104125	0.064530879236223027	5.3748186021559191e-10	-9.4489961827795839e-11	1	1	0	1	1	1.1	0.9;
	55	1	0.13387500000000002	0.082968273303715312	1.0967728695173326e-10	-1.3024020650470177e-09	1	1	0	1	1	1.1	0.9;
	59	1	0.012750000000000001	0.0079017403146395531	2.3491780094560989e-10	-1.4884732697537461e-09	1	1	0	1	1	1.1	0.9;
	64	1	0.070125000000000021	0.043459571730517545	-1.4415840650977199e-11	-1.7864129323273162e-11	1	1	0	1	1	1.1	0.9;
	79	1	0.1192125	0.073881271941879822	-8.6111745887336758e-13	-7.8848240362041723e-13	1	1	0	1	1	1.1	0.9;
	89	1	0.0055250000000000004	0.0034240874696771402	-2.4568761929259926e-13	-2.3447568801741716e-14	1	1	0	1	1	1.1	0.9;
	91	1	0.0012749999999999999	0.00079017403146395529	1.7983501129311059e-13	1.1451402058628215e-12	1	1	0	1	1	1.1	0.9;
	92	1	0.0427125	0.026470830054042504	-3.3685069556195026e-13	4.0784580223970366e-13	1	1	0	1	1	1.1	0.9;
	93	1	0.13685	0.084812012710464527	3.575610705068806e-11	7.1565525122185588e-11	1	1	0	1	1	1.1	0.9;
	96	1	0.063750000000000001	0.03950870157319776	7.6728044178606354e-14	2.6207584490316343e-14	1	1	0	1	1	1.1	0.9;
	102	1	0.048875000000000002	0.030290004539451625	9.4233622947204479e-13	-9.7468305490381989e-13	1	1	0	1	1	1.1	0.9;
	122	1	0.019125	0.011852610471959332	8.6686213762732223e-13	-1.2079226507921703e-13	1	1	0	1	1	1.1	0.9;
	125	1	0.031662500000000003	0.019622655114688223	-8.1385564953961875e-11	6.3572258568456164e-11	1	1	0	1	1	1.1	0.9;
];

%% generator data
%	bus	Pg	Qg	Qmax	Qmin	Vg	mBase	status	Pmax	Pmin
mpc.gen = [
	1	0	0	9999	-9999	1	1	1	9999	-9999;
];

%% branch data
%	fbus	tbus	r	x	b	rateA	rateB	rateC	ratio	angle	status	angmin	angmax
mpc.branch = [
	1	2	0.0037105894563954295	0.0026302098573062925	0	0	0	0	0	0	1	-360	360;
	2	3	0.011093183383504531	0.0078649062481310397	0	0	0	0	0	0	1	-360	360;
	3	5	0.00064951392564287409	0.00045658899723409962	0	0	0	0	0	0	1	-360	360;
	5	6	0.00043729650439322195	0.00031511071640099821	0	0	0	0	0	0	1	-360	360;
	6	7	0.0030160597141238401	0.0040192693418494669	0	0	0	0	0	0	1	-360	360;
	6	38	0.013446867510091583	0.0097298472227491939	0	0	0	0	0	0	1	-360	360;
	7	8	0.004733091576961934	0.0063086451589669246	0	0	0	0	0	0	1	-360	360;
	7	89	0.0041350242988947433	0.0055047912905970432	0	0	0	0	0	0	1	-360	360;
	8	9	0.0041736092845764882	0.0029517514046542496	0	0	0	0	0	0	1	-360	360;
	9	10	0.0032604312901082884	0.002308668309958334	0	0	0	0	0	0	1	-360	360;
	10	12	0.009048179142371526	0.0063986767922243589	0	0	0	0	0	0	1	-360	360;
	12	13	0.0078906295719188765	0.0055690996000666224	0	0	0	0	0	0	1	-360	360;
	13	15	0.0092925507183559287	0.0065723092277922106	0	0	0	0	0	0	1	-360	360;
	15	17	0.0080899853312746024	0.0057298703737405947	0	0	0	0	0	0	1	-360	360;
	15	122	0.014700879544748585	0.010405084472179943	0	0	0	0	0	0	1	-360	360;
	17	20	0.010115697079566974	0.0070288982250243806	0	0	0	0	0	0	1	-360	360;
	20	23	0.0077234279672979394	0.0047845382245399106	0	0	0	0	0	0	1	-360	360;
	23	26	0.011639804013996877	0.0084179577095689056	0	0	0	0	0	0	1	-360	360;
	38	39	0.006032119428247682	0.0042636409178339156	0	0	0	0	0	0	1	-360	360;
	39	40	0.0022314983385948246	0.0015755535820049917	0	0	0	0	0	0	1	-360	360;
	40	41	0.0059035028093084993	0.004180040115523447	0	0	0	0	0	0	1	-360	360;
	41	42	0.014906666135051308	0.010546562753013005	0	0	0	0	0	0	1	-360	360;
	42	43	0.0077620129529797459	0.005491929628703123	0	0	0	0	0	0	1	-360	360;
	42	55	0.0044244116915078836	0.0031318146711690848	0	0	0	0	0	0	1	-360	360;
	43	44	0.0028488581095029025	0.0020192809173451729	0	0	0	0	0	0	1	-360	360;
	44	47	0.0077234279672979463	0.0055626687691196731	0	0	0	0	0	0	1	-360	360;
	44	79	0.0072925622938516659	0.0038713602300693996	0	0	0	0	0	0	1	-360	360;
	47	49	0.0073890247580559489	0.0051768189123021172	0	0	0	0	0	0	1	-360	360;
	55	59	0.018668702239021336	0.013208926765056065	0	0	0	0	0	0	1	-360	360;
	55	64	0.011151060862145571	0.0078906295718877296	0	0	0	0	0	0	1	-360	360;
	89	91	0.0032861546138961252	0.0043793958748791764	0	0	0	0	0	0	1	-360	360;
	89	96	0.0044179808605609378	0.0031253838402221408	0	0	0	0	0	0	1	-360	360;
	91	92	0.0020257117482921317	0.0027009489977228426	0	0	0	0	0	0	1	-360	360;
	91	102	0.0052025422360899611	0.0036848661326075887	0	0	0	0	0	0	1	-360	360;
	92	93	0.0018006326651485627	0.0023986999432157644	0	0	0	0	0	0	1	-360	360;
	122	125	0.012713752782138295	0.0090031633257428179	0	0	0	0	0	0	1	-360	360;
];
